// Generated for: spectre
// Generated on: Feb 14 13:00:49 2020
// Design library name: inverter
// Design cell name: inv
// Design view name: schematic
simulator lang=spectre
global 0 VDD! GND!
