// Generated for: spectre
// Generated on: Feb 13 17:03:59 2020
// Design library name: inverter
// Design cell name: inv
// Design view name: schematic
simulator lang=spectre
global 0 VDD! GND!
