simulator lang=spectre
include "g45n1hvt.scs"
include "g45p1hvt.scs"
