// Generated for: spectre
// Generated on: Feb 17 18:08:05 2020
// Design library name: inverter
// Design cell name: inv
// Design view name: av_extracted
simulator lang=spectre
global 0 vdd!
